src/test/resources/com/rte_france/trm_algorithm/trmStudyTest/20241002_0330_SN3_UX0.uct
##C 2007.05.01
Generated by Convergence, RTE's network analysis tool (2024.10.02 03:45)
Informations      : 20241002_0330_SN3_UX0; Topological Merging; Hierachical State Estimation
Date of situation : 2024/10/02 03:30
Merged files:
  20241002_0330_SN3_BE0
  20241002_0330_SN3_FR0
  20241002_0330_SN3_D10
  20241002_0330_SN3_D20
  20241002_0330_SN3_D40
  20241002_0330_SN3_D60
  20241002_0330_SN3_D70
  20241002_0330_SN3_D80
  20241002_0330_SN3_NL0
  20241002_0330_SN3_CH0
  20241002_0330_SN3_IT0
  20241002_0330_013_AT0
  20241002_0330_SN3_CZ0
  20241002_0230_SN3_PL0
  20241002_0330_SN3_SI0
  20241002_0330_SN3_HR0
##N
##ZBE
BAALNO31 AALNO150     0 0        19.0111 -0.0480 0.00000 0.00000 
BAALNO32 AALNO150     0 0        -0.0169 -0.0321 0.00000 0.00000 
BAALST31 AALST150     0 0        54.7589 0.47200 0.00000 0.00000 
BAALST3A AALST150     0 0        0.00000 0.00000 0.00000 0.00000 
BAALTR31 AALTR150     0 0        13.8107 -5.3893 0.00000 0.00000 
BAALTR32 AALTR150     0 0        13.5608 -3.2234 0.00000 0.00000 
BACHEN10 ACHEN380     0 0        0.00000 0.00000 0.00000 0.00000 
BACHEN11 ACHEN380     0 0        128.873 -40.194 0.00000 0.00000 
BACHES11 ACHES380     0 0        -0.0141 0.12865 -3.2215 8.64470 
BAIRLI31 AIRLI150     0 0        0.02461 0.24585 0.00000 0.00000 
BALEGR1A ALEGR380     0 0        0.00000 0.00000 0.00000 0.00000 
BALEGR1B ALEGR380     0 0        0.00000 0.00000 0.00000 0.00000 
BALZ 131 ALZ 150      0 0        11.4984 5.77068 0.00000 0.00000 
BALZ 132 ALZ 150      0 0        13.7189 1.50202 0.00000 0.00000 
BALZ 133 ALZ 150      0 0        13.6972 1.50152 0.00000 0.00000 
BALZ 134 ALZ 150      0 0        58.8686 0.42095 0.00000 0.00000 
BAMERC31 AMERC150     0 0        0.10745 0.06161 0.00000 0.00000 
BAMERC32 AMERC150     0 0        -0.0227 0.07562 0.00000 0.00000 
BAMOCO31 AMOCO150     0 0        51.7735 16.4270 0.00000 0.00000 
BANDUM11 ANDUM380     0 0        -0.0144 -0.2548 0.00000 0.00000 
BANDUM31 ANDUM150     0 0        -0.0174 -0.1418 0.00000 0.00000 
BANS 130 ANS 150      0 0        2.15246 -0.5576 0.00000 0.00000 
BANS 131 ANS 150      0 0        29.0060 -13.610 0.00000 0.00000 
BANTOI31 ANTOI150     0 0        20.4901 0.85092 0.00000 0.00000 
BATOFI31 ATOFI150     0 0        -0.0218 0.06336 -1.6117 -8.8545 
BATOFI32 ATOFI150     0 0        -0.0218 0.06336 0.00000 0.00000 
BAUBAN10 AUBAN 36     0 0        -0.0013 0.40140 0.00000 0.00000 
BAUBAN11 AUBAN380     0 0        -0.0086 0.14982 0.00000 0.00000 
BAUBAN1S              0 0        -0.0013 0.39532 0.00000 0.00000 
BAUBAN20 AUBAN220     0 0        0.01851 0.45551 0.00000 0.00000 
BAUBAN21 AUBAN220     0 0        0.00000 135.794 0.00000 0.00000 
BAUBAN22 AUBAN220     0 0        21.1546 121.708 0.00000 0.00000 
BAUVEL31 AUVEL150     0 0        10.9642 1.76988 0.00000 0.00000 
BAUVEL32 AUVEL150     0 0        11.0373 0.55987 0.00000 0.00000 
BAUVEL33 AUVEL150     0 0        -0.0217 0.05657 -22.772 0.44529 
BAVERN30 AVERN150     0 0        0.07623 0.53299 0.00000 0.00000 
BAVERN31 AVERN150     0 0        -0.0157 -0.0531 -0.1145 -0.3487 
BAVERN32 AVERN150     0 0        -0.0079 83.3296 0.00000 0.00000 
BAVERN33 AVERN150     0 0        -0.0079 78.0410 -0.1153 -0.3520 
BAVERN34 AVERN 36     0 2 150.00 -0.6886 -5.7243 -0.0600 -6.6541 
BAVLGM10 AVLGM380     0 0        -0.0153 0.22747 0.00000 0.00000 
BAVLGM11 AVLGM380     0 0        -0.0153 0.22622 0.00000 0.00000 
BAVLGM12 AVLGM380     0 0        -0.0167 0.27662 0.00000 0.00000 
BAVLGM13 AVLGM 36     0 0        -2.4404 7.59506 0.00000 0.00000 
BAVLGM1A AVLGM380     0 0        0.00000 0.00000 0.00000 0.00000 
BAVLGM1S              0 0        -0.0124 0.14604 0.00000 0.00000 
BAVLGM31 AVLGM150     0 0        -0.0131 0.17631 0.00000 0.00000 
BAVLGM32 AVLGM150     0 0        -0.0131 0.17532 0.00000 0.00000 
BAWIRS21 AWIRS220     0 0        32.8863 -14.082 0.00000 0.00000 
BAWIRS2S              0 0        -0.0148 -0.0819 0.00000 0.00000 
BAWIRS31 AWIRS150     0 0        -0.0152 -0.0683 0.00000 0.00000 
BBAISY31 BAISY150     0 0        64.7403 -19.979 0.00000 0.00000 
BBALE+31 BALE+150     0 0        -0.0172 -0.0660 0.00000 0.00000 
BBALEN30 BALEN150     0 0        -0.0172 -0.0658 0.00000 0.00000 
BBALEN31 BALEN150     0 0        -0.0172 -0.0658 0.00000 0.00000 
BBALEN32 BALEN150     0 0        -0.0172 -0.0660 0.00000 0.00000 
BBASCH21 BASCH220     0 0        0.01183 0.24303 0.00000 0.00000 
BBASCO31 BASCO150     0 0        11.1077 -2.8552 0.00000 0.00000 
BBASCO32 BASCO150     0 0        -0.0018 0.10619 0.00000 0.00000 
BBASF 30 BASF 150     0 0        68.9184 9.09303 0.00000 0.00000 
BBASF 31 BASF 150     0 0        64.2337 20.3995 0.00000 0.00000 
BBASF 32 BASF 150     0 0        -0.0176 -0.0345 -0.5369 -1.8443 
BBASF 33 BASF 150     0 0        64.7372 10.6651 0.00000 0.00000 
BBASF 34 BASF 150     0 0        78.8366 16.9070 0.00000 0.00000 
BBASF 35 BASF 150     0 0        55.6345 14.9734 0.00000 0.00000 
BBASSW3A BASSW150     0 0        0.00000 0.00000 0.00000 0.00000 
BBASTO21 BASTO220     0 0        -0.0075 0.20397 -2.7851 -1.1758 
BBATTI31 BATTI150     0 0        10.5026 -4.8598 0.00000 0.00000 
BBAUDO30 BAUDO150     0 0        0.00000 0.00000 -0.3085 -6.2842 
BBAUDO31 BAUDO150     0 0        0.21413 2.81992 0.00000 0.00000 
BBAYMI31 BAYMI150     0 0        -0.0153 0.11699 -5.8871 -20.255 
BBEAGA31 BEAGA150     0 0        12.4859 -1.7779 0.00000 0.00000 
BBEERS30 BEERS150     0 0        7.49978 -5.3155 -1.3496 -14.736 
BBEERS31 BEERS150     0 0        17.4830 -2.4865 0.00000 0.00000 
BBERIN30 BERIN150     0 0        11.6197 -1.8060 0.00000 0.00000 
BBERIN31 BERIN150     0 0        31.0511 -2.3265 0.00000 0.00000 
BBERN221 BERN220      0 0        -0.0162 -0.0842 0.00000 0.00000 
BBERN222 BERN220      0 0        -0.0165 -0.1015 0.00000 0.00000 
BBERNE21 BERNE220     0 0        1.29589 -1.0400 0.00000 0.00000 
BBERST31 BERST150     0 0        6.84790 -1.5724 0.00000 0.00000 
BBERST32 BERST150     0 0        6.49954 -1.9726 0.00000 0.00000 
BBIFF+21 BIFF+220     0 0        0.00971 0.25201 0.00000 0.00000 
BBINCH31 BINCH150     0 0        6.95777 -2.4333 0.00000 0.00000 
BBLANC31 BLANC150     0 0        -0.0232 0.08258 -0.5863 -2.9979 
BBLANC32 BLANC150     0 0        23.0086 -0.3304 0.00000 0.00000 
BBLIBB20 BLIBB220     0 2 222.64 -0.0148 0.00002 0.00000 2.11658 32.3500 -32.350 17.8000 -32.300 
BBLIBB21 BLIBB220     0 2 223.07 1.95724 -0.3540 0.26000 -13.475 
BBLIBB22 BLIBB220     0 2 222.64 -0.0148 0.00002 0.00000 2.11658 34.1500 -34.150 18.8000 -34.200 
BBLIGH30 BLIGH150     0 2 153.45 -0.0149 -0.0000 0.00000 -27.073 171.880 -171.88 172.000 -172.00 
BBLIGH31 BLIGH150     0 2 153.44 1.65815 -0.9480 0.21000 34.2507 171.880 -171.88 
BBLTOR30 BLTOR150     0 0        -0.0074 0.00211 0.00000 0.00000 
BBLTOR31 BLTOR150     0 0        -0.0074 0.00211 0.00000 0.00000 
BBOLAL31 BOLAL150     0 0        0.76608 0.06898 0.00000 0.00000 
BBOTCC31 BOTCC150     0 0        7.03070 3.70901 0.00000 0.00000 
BBOTCC32 BOTCC150     0 0        6.60047 3.56074 0.00000 0.00000 
BBO_HF31 BO_HF150     0 0        -0.0217 0.06889 0.00000 0.00000 
BBRAIN31 BRAIN150     0 0        21.5013 -3.8982 0.00000 0.00000 
BBRESS30 BRESS150     0 0        0.01194 0.02192 0.00000 0.00000 
BBRESS31 BRESS150     0 0        0.00000 0.00000 -1.0128 -0.4982 
BBRUEG10 BRUEG380     0 0        -0.0087 -0.0025 0.00000 0.00000 
BBRUEG11 BRUEG380     0 0        -0.0087 -0.0025 0.00000 0.00000 
BBRUEG12 BRUEG 36     0 0        -0.0167 67.9893 0.00000 0.00000 
BBRUEG1S              0 0        -0.0167 -0.0290 0.00000 0.00000 
BBRUEG30 BRUEG150     0 0        -0.0084 -0.0130 0.00000 0.00000 
BBRUEG31 BRUEG150     0 0        -0.0097 0.00920 0.00000 0.00000 
BBRUEG32 BRUEG150     0 0        -0.0084 -0.0130 0.00000 0.00000 
BBRUEG33 BRUEG150     0 0        -0.0097 0.00920 0.00000 0.00000 
BBRUEG3A BRUEG150     0 0        0.00000 0.00000 0.00000 0.00000 
BBRUGG30 BRUGG150     0 0        9.52534 -2.0195 0.00000 0.00000 
BBRUGG31 BRUGG150     0 0        0.00000 78.7581 0.00000 0.00000 
BBRUGG32 BRUGG 36     0 2 145.66 31.5006 -22.144 -15.646 -0.8851 23.0000 -23.000 10.0447 -6.9000 
BBRUGG34 BRUGG 36     0 2 145.81 44.2856 -25.885 -31.515 22.0720 23.0000 -31.515 22.1438 -6.9000 
BBRUGG3A BRUGG150     0 0        0.00000 0.00000 0.00000 0.00000 
BBRUME10 BRUME380     0 0        25.9413 -28.647 0.00000 0.00000 
BBRUME11 BRUME380     0 0        2.40906 -8.2584 0.00000 0.00000 
BBRUME1A BRUME 36     0 0        0.00000 0.00000 0.00000 0.00000 
BBRUME1S              0 0        0.00000 0.00000 0.00000 0.00000 
BBRUME2A BRUME220     0 0        0.00000 0.00000 0.00000 0.00000 
BBRUMS2A BRUMS220     0 0        0.00000 0.00000 0.00000 0.00000 
BBRUMS2B BRUMS220     0 0        0.00000 0.00000 0.00000 0.00000 
BBRUST31 BRUST150     0 0        44.3158 1.85358 0.00000 0.00000 
BBT1VH3A BT1VH150     0 0        0.00000 0.00000 0.00000 0.00000 
BBUGG+11 BUGG+380     0 0        -0.0168 -0.0151 0.00000 0.00000 
BBUGG+1A BUGG+380     0 0        0.00000 0.00000 0.00000 0.00000 
BBUIZI31 BUIZI150     0 0        23.7578 -6.2712 0.00000 0.00000 
BBUIZI3A BUIZI150     0 0        0.00000 0.00000 0.00000 0.00000 
BBURCH30 BURCH150     0 0        4.26018 -4.5249 0.00000 0.00000 
BBURCH31 BURCH150     0 0        8.58837 -4.2352 0.00000 0.00000 
BBVERW30 BVERW150     0 0        -0.0152 0.15347 0.00000 0.00000 
BBVERW31 BVERW150     0 0        13.2182 -5.3654 0.00000 0.00000 
BBVERW32 BVERW150     0 0        9.10648 -4.0810 0.00000 0.00000 
BBVREN30 BVREN150     0 0        12.9077 -4.9399 0.00000 0.00000 
BBVREN31 BVREN150     0 0        3.50233 -1.2276 0.00000 0.00000 
BBWTON31 BWTON150     0 0        31.1111 7.09464 0.00000 0.00000 
BBWTON3A BWTON150     0 0        0.00000 0.00000 0.00000 0.00000 
BCAMOC30 CAMOC 15     0 2 161.85 0.66022 1.10802 -21.880 -6.9421 30.7000 -30.700 10.0000 -40.000 
BCAMOC31 CAMOC150     0 0        -0.0163 -0.1425 0.00000 0.00000 
BCARAL31 CARAL150     0 0        1.92139 0.00048 0.00000 0.00000 
BCBR3A31 CBR3A150     0 0        0.03834 0.25551 0.00000 0.00000 
BCBR3A32 CBR3A150     0 0        8.69260 2.34496 0.00000 0.00000 
BCBRL131 CBRL1150     0 0        0.05129 0.48993 0.00000 0.00000 
BCBRL132 CBRL1150     0 0        25.9575 16.1603 0.00000 0.00000 
BCFINF30 CFINF 11     0 2 155.55 1.62661 0.31506 -42.360 6.63557 49.3300 -49.330 15.0000 -50.000 
BCFINF31 CFINF150     0 0        -0.0153 0.15031 0.00000 0.00000 
BCFINF32 CFINF150     0 0        -0.0142 0.19644 -81.684 12.3839 
BCHACO31 CHACO150     0 0        2.48767 -0.7296 0.00000 0.00000 
BCHAMP11 CHAMP380     0 0        93.7595 -15.101 0.00000 0.00000 
BCHAMP1A CHAMP380     0 0        0.00000 0.00000 0.00000 0.00000 
BCHARL31 CHARL150     0 0        11.0726 -0.3973 0.00000 0.00000 
BCHARL3A CHARL150     0 0        -0.0236 0.08785 0.00000 0.00000 
BCHARL3B CHARL150     0 0        0.00000 0.00000 0.00000 0.00000 
BCHER+31 CHER+150     0 0        -0.0164 -0.1008 0.00000 0.00000 
BCHERA31 CHERA150     0 0        8.48201 -2.1472 0.00000 0.00000 
BCHERA32 CHERA150     0 0        0.90363 0.26856 0.00000 0.00000 
BCHIEV30 CHIEV150     0 0        -0.0166 0.12806 0.00000 0.00000 
BCHIEV31 CHIEV150     0 0        1.58521 -7.0483 0.00000 0.00000 
BCIPLY31 CIPLY150     0 0        5.95700 -3.4744 0.00000 0.00000 
BCKNIP31 CKNIP150     0 0        2.65013 1.71664 0.00000 0.00000 
BCLABE30 CLABE150     0 0        7.82390 3.52344 0.00000 0.00000 
BCLABE31 CLABE150     0 0        -0.0202 0.03146 0.00000 0.00000 
BCLABE3A CLABE150     0 0        0.00000 0.00000 0.00000 0.00000 
BCLABE3B CLABE150     0 0        0.00000 0.00000 0.00000 0.00000 
BCLABE3C CLABE150     0 0        0.00000 0.00000 0.00000 0.00000 
BCLABE3D CLABE150     0 0        0.00000 0.00000 0.00000 0.00000 
BCLANG31 CLANG150     0 0        21.3330 -8.7855 0.00000 0.00000 
BCLANG32 CLANG150     0 0        21.4548 -8.8043 0.00000 0.00000 
BCLANG33 CLANG150     0 0        6.90574 -1.3005 0.00000 0.00000 
BCMARE31 CMARE150     0 0        4.02863 4.08243 -1.3443 1.68418 
BCOO 211 COO 20       0 0        0.29485 -1.0920 197.550 65.0000 230.000 -230.00 65.0000 -140.00 
BCOO 212 COO 20       0 0        0.29486 -1.0929 200.980 65.0000 230.000 -230.00 65.0000 -140.00 
BCOO 213 COO 20       0 0        0.29485 -1.0910 198.670 65.0000 230.000 -230.00 65.0000 -140.00 
BCOO 311 COO 380      0 0        -0.0128 0.01984 0.00000 0.00000 
BCOO 312 COO 380      0 0        -0.0128 0.01980 0.00000 0.00000 
BCORBA31 CORBA150     0 0        16.2730 -12.347 0.00000 0.00000 
BCOURC10 COURC380     0 0        -0.0088 0.00364 0.00000 0.00000 
BCOURC11 COURC380     0 0        -0.0088 0.00364 0.00000 0.00000 
BCOURC31 COURC150     0 0        -0.0217 0.06068 0.00000 0.00000 
BCQUIN31 CQUIN150     0 0        10.6547 -1.2589 0.00000 0.00000 
BCZWIJ30 CZWIJ150     0 0        20.2315 6.94398 0.00000 0.00000 
BCZWIJ31 CZWIJ150     0 0        20.2315 6.94398 0.00000 0.00000 
BCZWIJ32 CZWIJ 11     0 2 156.15 -0.0470 -1.0260 -17.580 -5.9196 56.2500 -56.250 31.5000 -35.400 
BCZWIJ33 CZWIJ 11     0 2 156.15 -0.0471 -1.0340 -17.580 -7.1195 56.2500 -56.250 31.5000 -35.400 
BCZWIJ34 CZWIJ 11     0 2 153.45 -0.0387 0.96100 -10.030 -0.3494 62.5000 -62.500 30.0000 -39.400 
BDAMPL31 DAMPL150     0 0        8.89116 -2.0214 0.00000 0.00000 
BDAMPL32 DAMPL150     0 0        8.98420 -2.0460 0.00000 0.00000 
BDAMPR30 DAMPR150     0 0        -0.0116 0.04129 0.00000 0.00000 
BDAMPR31 DAMPR150     0 0        -0.0232 0.08232 0.00000 0.00000 
BDAMPR32 DAMPR150     0 0        -0.0116 0.04129 0.00000 0.00000 
BDAMPS31 DAMPS150     0 0        -0.0232 0.08257 -0.6499 -2.1402 
BDAMPS32 DAMPS150     0 0        -0.0232 0.08257 -0.0654 -2.8166 
BDEIN+31 DEIN+150     0 0        -0.0136 0.12222 0.00000 0.00000 
BDEIN+32 DEIN+150     0 0        -0.0136 0.12364 0.00000 0.00000 
BDEINZ31 DEINZ150     0 0        6.49759 -2.1544 0.00000 0.00000 
BDEINZ32 DEINZ150     0 0        10.3262 0.18267 0.00000 0.00000 
BDESG+31 DESG+150     0 0        -0.0128 0.17474 0.00000 0.00000 
BDESGM31 DESGM150     0 0        4.11350 -1.3358 0.00000 0.00000 
BDHANI30 DHANI150     0 0        0.00000 0.00000 0.00000 0.00000 
BDHANI31 DHANI150     0 0        12.5214 -1.1005 0.00000 0.00000 
BDHANI32 DHANI150     0 0        17.9663 -2.4952 0.00000 0.00000 
BDIEST31 DIEST150     0 0        55.5505 -15.822 0.00000 0.00000 
BDILB+31 DILB+150     0 0        -0.0195 0.01910 0.00000 0.00000 
BDILBE31 DILBE150     0 0        3.92196 -2.8296 0.00000 0.00000 
BDOEL 10 DOEL 380     0 0        0.00000 0.00000 0.00000 0.00000 
BDOEL 11 DOEL 380     0 0        0.00000 0.00000 0.00000 0.00000 
BDOEL 12 DOEL 380     0 0        0.00000 0.00000 0.00000 0.00000 
BDOEL 13 DOEL 380     0 0        8.97984 2.80441 0.00000 0.00000 
BDOEL 14 DOEL 18      0 2 373.17 23.5646 12.9860 -478.23 -14.798 540.000 -540.00 95.0000 -375.00 
BDOEL 15 DOEL 18      0 2 373.55 24.2936 19.5430 -473.65 -25.486 556.000 -556.00 95.0000 -375.00 
BDOEL 31 DOEL 150     0 0        7.13473 5.21417 0.00000 0.00000 
BDOEL 32 DOEL 150     0 0        -0.2568 0.15556 0.00000 0.00000 
BDOTT+31 DOTT+150     0 0        -0.0131 0.16456 0.00000 0.00000 
BDOTTI31 DOTTI150     0 0        12.7501 0.48930 0.00000 0.00000 
BDROGE11 DROGE380     0 0        -0.0176 0.00101 0.00000 0.00000 
BDROGE30 DROGE150     0 0        22.4159 -18.126 0.00000 0.00000 
BDROGE31 DROGE150     0 0        26.6967 2.09435 0.00000 0.00000 
BDRONG31 DRONG150     0 0        25.6234 -6.3811 0.00000 0.00000 
BEDISO3A EDISO150     0 0        0.00000 0.00000 0.00000 0.00000 
BEDISO3B EDISO150     0 0        0.00000 0.00000 0.00000 0.00000 
BEEKLN11 EEKLN380     0 0        -0.0148 0.10860 0.00000 0.00000 
BEEKLN30 EEKLN150     0 0        0.00000 78.5427 -1.8222 -2.1391 
BEEKLN31 EEKLN150     0 0        5.66205 -4.4531 -2.3824 -4.1280 
BEEKLO31 EEKLO150     0 0        11.9925 -6.2572 0.00000 0.00000 
BEEKLO32 EEKLO150     0 0        11.8995 -6.1995 0.00000 0.00000 
BEISDE31 EISDE150     0 0        23.4201 -5.3565 0.00000 0.00000 
BEISDE32 EISDE150     0 0        23.4599 -5.3705 0.00000 0.00000 
BEIZE+31 EIZE+150     0 0        -0.0194 0.01847 0.00000 0.00000 
BEIZE+32 EIZE+150     0 0        -0.0194 0.01847 0.00000 0.00000 
BEIZER31 EIZER150     0 0        12.6771 -4.5687 0.00000 0.00000 
BEIZER32 EIZER150     0 0        -0.0194 0.01847 0.00000 0.00000 
BEKERE31 EKERE150     0 0        17.1008 -9.9825 -0.1061 0.47513 
BESCH 21 ESCH 220     0 0        -0.0358 0.45069 0.00000 0.00000 
BESCH 22 ESCH 220     0 0        11.8902 6.36971 0.00000 0.00000 
BESCH 2A ESCH 220     0 0        0.00000 0.00000 0.00000 0.00000 
BESSO 30 ESSO 15      0 2 150.49 0.69421 1.85898 -76.090 9.99928 153.520 -153.52 10.0000 -125.00 
BESSO 31 ESSO 150     0 0        -0.0141 0.20245 0.00000 0.00000 
BESSO 32 ESSO 150     0 0        27.9736 15.0029 0.00000 0.00000 
BESSO 33 ESSO 150     0 0        30.8962 18.6527 0.00000 0.00000 
BESSO+31 ESSO+150     0 0        -0.0162 -0.1444 0.00000 0.00000 
BESSO+32 ESSO+150     0 0        -0.0162 -0.1444 0.00000 0.00000 
BESSOC31 ESSOC150     0 0        21.6725 3.51122 0.00000 0.00000 
BESSOC32 ESSOC150     0 0        5.14930 2.70150 0.00000 0.00000 
BESTIN31 ESTIN150     0 0        0.00995 0.07736 0.00000 0.00000 
BEUPEN31 EUPEN150     0 0        15.3334 -6.8500 0.00000 0.00000 
BEUPEN32 EUPEN150     0 0        16.2654 -3.8065 0.00000 0.00000 
BFAFER31 FAFER150     0 0        6.56287 4.51477 0.00000 0.00000 
BFAFER32 FAFER150     0 0        65.3981 33.3632 0.00000 0.00000 
BFARCI31 FARCI150     0 0        4.02545 -1.9594 0.00000 0.00000 
BFARCI32 FARCI150     0 0        -0.0221 0.06203 0.00000 0.00000 
BFELUY31 FELUY150     0 0        2.82120 5.28403 0.00000 0.00000 
BFIBER31 FIBER150     0 0        13.3409 3.62468 0.00000 0.00000 
BFLEUR31 FLEUR150     0 0        7.58679 -0.5043 0.00000 0.00000 
BFLEUR32 FLEUR150     0 0        0.13752 -2.5473 0.00000 0.00000 
BFLORA31 FLORA150     0 0        27.2222 -9.5108 0.00000 0.00000 
BFLORA32 FLORA150     0 0        27.2224 -9.5259 0.00000 0.00000 
BFOC 131 FOC 150      0 0        30.2907 3.53404 0.00000 0.00000 
BFOC+ 31 FOC+ 150     0 0        -0.0233 0.08360 0.00000 0.00000 
BFONT+31 FONT+150     0 0        -0.0233 0.08628 0.00000 0.00000 
BFONT+32 FONT+150     0 0        -0.0232 0.08619 0.00000 0.00000 
BFONTA31 FONTA150     0 0        -0.0233 0.08628 -0.3288 -0.7262 
BFONTA32 FONTA150     0 0        0.02411 0.15410 0.00000 0.00000 
BFORES30 FORES150     0 0        0.00000 0.00000 0.00000 0.00000 
BFORES31 FORES150     0 0        11.4773 -0.6707 0.00000 0.00000 
BGASTH31 GASTH150     0 0        35.3405 0.68612 0.00000 0.00000 
BGAURA31 GAURA150     0 0        40.3573 21.2317 0.00000 0.00000 
BGAURA32 GAURA150     0 0        -0.0139 0.15793 0.00000 0.00000 
BGAURA3A GAURA150     0 0        0.00000 0.00000 0.00000 0.00000 
BGENPM3A GENPM150     0 0        0.00000 0.00000 0.00000 0.00000 
BGEZEL10 GEZEL380     0 0        -0.0073 124.374 0.00000 0.00000 
BGEZEL11 GEZEL380     0 0        -0.0073 124.374 0.00000 0.00000 
BGILLY31 GILLY150     0 0        11.2085 -1.6572 0.00000 0.00000 
BGODSH31 GODSH150     0 0        56.0620 -13.952 0.00000 0.00000 
BGOSS+31 GOSS+150     0 0        -0.0217 0.05928 0.00000 0.00000 
BGOSS+32 GOSS+150     0 0        -0.0218 0.06006 0.00000 0.00000 
BGOSSE31 GOSSE150     0 0        -0.0218 0.06006 -5.3390 -4.6012 
BGOSSE32 GOSSE150     0 0        6.27896 5.94498 0.00000 0.00000 
BGOUY 10 GOUY 36      0 0        -0.0176 0.00027 0.00000 0.00000 
BGOUY 11 GOUY 380     0 0        -0.0176 0.00727 0.00000 0.00000 
BGOUY 12 GOUY 380     0 0        -0.0176 0.00779 0.00000 0.00000 
BGOUY 13 GOUY 36      0 0        -0.0238 0.04188 0.00000 0.00000 
BGOUY 1S              0 0        -0.0176 0.00727 0.00000 0.00000 
BGOUY 1T              0 0        -0.0228 0.07787 0.00000 0.00000 
BGOUY 30 GOUY 10      0 2 149.71 9.18632 -1.5181 -0.2000 -0.6639 11.5000 -11.500 3.50000 -3.5000 
BGOUY 31 GOUY 150     0 0        35.2854 -7.8127 0.00000 0.00000 
BGOUY 32 GOUY 150     0 0        -0.0218 0.06158 0.00000 0.00000 
BGOUY 3A GOUY 150     0 0        0.00000 0.00000 0.00000 0.00000 
BGRAMM10 GRAMM380     0 0        -0.0034 -0.0024 0.00000 0.00000 
BGRAMM11 GRAMM380     0 0        -0.0034 -0.0024 0.00000 0.00000 
BGRAMM12 GRAMM380     0 0        -0.0034 -0.0024 0.00000 0.00000 
BGRAMM13 GRAMM380     0 0        -0.0034 -0.0024 0.00000 0.00000 
BGRAMM14 GRAMM 36     0 0        16.8794 10.2406 0.00000 0.00000 
BGRAMM1S              0 0        -0.0149 -0.0736 0.00000 0.00000 
BGRAMM30 GRAMM150     0 0        -0.0073 -0.0295 0.00000 0.00000 
BGRAMM31 GRAMM150     0 0        -0.0073 -0.0295 0.00000 0.00000 
BGRIMB31 GRIMB150     0 0        0.01145 0.02376 0.00000 0.00000 
BGRIMB32 GRIMB150     0 0        10.9722 -2.3264 0.00000 0.00000 
BGUUT+31 GUUT+150     0 0        -0.0152 0.02732 0.00000 0.00000 
BHAM 131 HAM 150      0 0        18.1720 -4.0043 0.00000 0.00000 
BHAM 13A HAM 150      0 0        0.00000 0.00000 0.00000 0.00000 
BHANNU3A HANNU150     0 0        0.00000 0.00000 0.00000 0.00000 
BHARE+31 HARE+150     0 0        -0.0128 0.17508 0.00000 0.00000 
BHARE+3A HARE+150     0 0        0.00000 0.00000 0.00000 0.00000 
BHAREL31 HAREL150     0 0        29.9261 -15.896 0.00000 0.00000 
BHAREL3A HAREL150     0 0        0.00000 0.00000 0.00000 0.00000 
BHARMI31 HARMI150     0 0        4.57633 3.55221 0.00000 0.00000 
BHARWI31 HARWI150     0 0        -0.0168 -0.0282 0.00000 0.00000 
BHARYD31 HARYD150     0 0        13.4727 -0.5763 0.00000 0.00000 
BHAVE730 HAVE7150     0 0        6.87675 0.89861 0.00000 0.00000 
BHAVE731 HAVE7150     0 0        3.50933 -1.8208 0.00000 0.00000 
BHBRUG31 HBRUG150     0 0        1.09154 -7.1116 0.00000 0.00000 
BHBRUG3A HBRUG150     0 0        0.00000 0.00000 0.00000 0.00000 
BHBRUG3B HBRUG150     0 0        0.00000 0.00000 0.00000 0.00000 
BHDPE 31 HDPE 150     0 0        11.4434 6.66920 0.00000 0.00000 
BHDPE 32 HDPE 150     0 0        -0.0218 0.06335 -1.6581 -2.7428 
BHEIMO30 HEIMO150     0 0        -0.0168 -0.0324 0.00000 0.00000 
BHEIMO31 HEIMO150     0 0        -0.0168 -0.0324 0.00000 0.00000 
BHEIMO32 HEIMO150     0 0        0.00000 0.00000 0.00000 0.00000 
BHEIMO33 HEIMO150     0 0        10.3286 -3.7525 0.00000 0.00000 
BHEINS21 HEINS220     0 0        12.9556 -12.941 0.00000 0.00000 
BHEISS21 HEISS220     0 0        -0.0048 0.28593 -0.6843 -2.4042 
BHEISS22 HEISS220     0 0        0.59500 0.06923 0.00000 0.00000 
BHEIST31 HEIST150     0 0        7.23134 -2.7102 0.00000 0.00000 
BHEIST32 HEIST150     0 0        12.0673 2.61943 0.00000 0.00000 
BHELIA31 HELIA150     0 0        16.3036 4.16752 0.00000 0.00000 
BHELIA3A HELIA150     0 0        0.00000 0.00000 0.00000 0.00000 
BHELIP30 HELIP150     0 0        0.00000 0.00000 0.00000 0.00000 
BHELIP31 HELIP150     0 0        9.11267 -1.3330 0.00000 0.00000 
BHERCU31 HERCU150     0 0        -7.1330 -1.5478 0.00000 0.00000 
BHERCU32 HERCU150     0 0        12.8447 3.15452 0.00000 0.00000 
BHERDE31 HERDE150     0 0        8.04247 -3.1546 0.00000 0.00000 
BHERDE32 HERDE150     0 0        0.01598 -0.1281 0.00000 0.00000 
BHEREN31 HEREN150     0 0        27.3350 -7.1748 0.00000 0.00000 
BHEULE3A HEULE150     0 0        0.00000 0.00000 0.00000 0.00000 
BHEZE 31 HEZE 150     0 0        50.5723 -10.211 0.00000 0.00000 
BHOEN+31 HOEN+150     0 0        -0.0166 -0.0340 0.00000 0.00000 
BHOEN+32 HOEN+150     0 0        -0.0166 -0.0353 0.00000 0.00000 
BHOOGS31 HOOGS150     0 0        2.13490 -10.911 -0.6186 -5.6637 
BHORTA10 HORTA380     0 0        -0.0075 0.00000 0.00000 0.00000 
BHORTA11 HORTA380     0 0        -0.0075 127.177 0.00000 0.00000 
BHORTA1A HORTA380     0 0        0.00000 0.00000 0.00000 0.00000 
BHOUF+21 HOUF+220     0 0        -0.0068 0.22901 0.00000 0.00000 
BHOUFF21 HOUFF220     0 0        -0.0068 0.22902 -13.522 2.22751 
BHOUT+3A HOUT+150     0 0        0.00000 0.00000 0.00000 0.00000 
BHOUTH3A HOUTH150     0 0        0.00000 0.00000 0.00000 0.00000 
BHSART31 HSART150     0 0        9.48354 -0.8587 0.00000 0.00000 
BIEPER31 IEPER150     0 0        8.10249 -6.0524 -0.0287 -2.5729 
BIEPNO31 IEPNO150     0 0        18.8404 9.51180 0.00000 0.00000 
BIEPNO32 IEPNO150     0 0        9.89498 -0.1572 0.00000 0.00000 
BIXELL30 IXELL150     0 0        12.2295 -5.9398 0.00000 0.00000 
BIXELL31 IXELL150     0 0        26.2395 -9.0397 0.00000 0.00000 
BIZGEM11 IZGEM380     0 0        -0.0163 0.26640 0.00000 0.00000 
BIZGEM12 IZGEM380     0 0        -0.0150 0.22108 0.00000 0.00000 
BIZGEM1A IZGEM380     0 0        0.00000 0.00000 0.00000 0.00000 
BIZGEM30 IZGEM150     0 0        9.90341 -1.5337 0.00000 0.00000 
BIZGEM31 IZGEM150     0 0        4.05476 -1.5144 0.00000 0.00000 
BIZGEM3A IZGEM150     0 0        0.00000 0.00000 0.00000 0.00000 
BIZGEM3B IZGEM150     0 0        0.00000 0.00000 0.00000 0.00000 
BJEMAP31 JEMAP150     0 0        15.8170 -3.7448 0.00000 0.00000 
BJEMAP3A JEMAP150     0 0        0.00000 0.00000 0.00000 0.00000 
BJUPIL20 JUPIL220     0 0        -0.0080 -0.0354 0.00000 0.00000 
BJUPIL21 JUPIL220     0 0        -0.0080 -0.0354 0.00000 0.00000 
BJUPIL22 JUPIL 15     0 0        -0.0150 -0.0882 0.00000 0.00000 
BJUPIL23 JUPIL 15     0 0        -0.0141 -0.0949 0.00000 0.00000 
BJUPIL2S              0 0        -0.0160 -0.0822 0.00000 0.00000 
BJUPIL2T              0 0        -0.0161 -0.0959 0.00000 0.00000 
BJUPIL31 JUPIL150     0 0        -0.0161 -0.0909 0.00000 0.00000 
BJUPIL32 JUPIL150     0 0        -0.0161 -0.0906 0.00000 0.00000 
BKALLO11 KALLO380     0 0        -0.0166 -0.0202 0.00000 0.00000 
BKALLO31 KALLO150     0 0        -0.0153 0.15350 0.00000 0.00000 
BKALLO32 KALLO150     0 0        -0.0153 0.11709 0.00000 0.00000 
BKAMEU30 KAMEU150     0 0        0.14936 1.59054 0.00000 0.00000 
BKAMEU31 KAMEU150     0 0        0.14936 1.59054 0.00000 0.00000 
BKEER+31 KEER+150     0 0        -0.0169 -0.0321 0.00000 0.00000 
BKENNE31 KENNE 36     0 0        48.3374 -5.5859 -48.337 5.58593 35.5600 -48.337 10.7000 -10.700 
BKENNE3A KENNE150     0 0        0.00000 0.00000 0.00000 0.00000 
BKENNE3B KENNE150     0 0        0.00000 0.00000 0.00000 0.00000 
BKENNE3C KENNE150     0 0        0.00000 0.00000 0.00000 0.00000 
BKETEN30 KETEN150     0 0        5.90883 -0.8861 -9.4658 8.01623 
BKETEN31 KETEN150     0 0        0.00000 0.00000 -12.290 8.77128 
BKOBB+31 KOBB+150     0 0        -0.0168 -0.0262 0.00000 0.00000 
BKOBBE31 KOBBE150     0 0        13.8019 -4.8379 0.00000 0.00000 
BKOKSI30 KOKSI150     0 0        18.9208 -8.8463 0.00000 0.00000 
BKOKSI31 KOKSI150     0 0        22.5681 -8.1941 0.00000 0.00000 
BKOKSI32 KOKSI150     0 0        0.00000 0.00000 0.00000 0.00000 
BKOKSI3A KOKSI150     0 0        0.00000 0.00000 0.00000 0.00000 
BKOKSI3B KOKSI150     0 0        0.00000 0.00000 0.00000 0.00000 
BKRUSS31 KRUSS150     0 0        60.3635 22.1598 0.00000 0.00000 
BKRUSS32 KRUSS150     0 0        58.1681 25.2927 0.00000 0.00000 
BKRUSS3A KRUSS150     0 0        0.00000 0.00000 0.00000 0.00000 
BKRUSS3B KRUSS150     0 0        0.00000 0.00000 0.00000 0.00000 
BKUUR+3A KUUR+150     0 0        0.00000 0.00000 0.00000 0.00000 
BKUURN3A KUURN150     0 0        0.00000 0.00000 0.00000 0.00000 
BLACRO30 LACRO150     0 0        0.00000 0.00000 0.00000 0.00000 
BLACRO31 LACRO150     0 0        8.36543 -1.9467 0.00000 0.00000 
BLACRO32 LACRO 10     0 2 149.86 4.19621 -1.4062 0.00000 -1.0858 10.4400 -10.440 3.10000 -3.1000 
BLANAK31 LANAK150     0 0        0.35354 0.38246 0.00000 0.00000 
BLANDN31 LANDN150     0 0        4.07709 -2.6400 0.00000 0.00000 
BLANGE30 LANGE150     0 0        -0.0073 0.02753 0.00000 0.00000 
BLANGE31 LANGE150     0 0        -0.0073 0.02753 0.00000 0.00000 
BLANLO30 LANLO150     0 0        30.2741 1.92813 0.00000 0.00000 
BLANLO31 LANLO150     0 0        21.0211 -2.6666 0.00000 0.00000 
BLATO+21 LATO+220     0 0        -0.0039 0.30644 0.00000 0.00000 
BLATOU21 LATOU220     0 0        3.23601 7.60531 0.00000 0.00000 
BLATRO21 LATRO220     0 0        29.6970 4.62592 0.00000 0.00000 
BLATRO22 LATRO220     0 0        0.04585 0.34908 0.00000 0.00000 
BLEES+31 LEES+150     0 0        -0.0167 -0.0420 0.00000 0.00000 
BLEVAL20 LEVAL220     0 0        0.28902 -0.0794 0.00000 0.00000 
BLEVAL21 LEVAL220     0 0        0.00000 0.00000 0.00000 0.00000 
BLIEF+11 LIEF+380     0 0        -0.0169 -0.0271 0.00000 0.00000 
BLIEF+12 LIEF+380     0 0        -0.0167 -0.0230 0.00000 0.00000 
BLIER 31 LIER 150     0 0        15.6342 3.89355 -11.637 0.13797 
BLIER 32 LIER 150     0 0        19.0359 -8.3697 0.00000 0.00000 
BLIGNE30 LIGNE 15     0 2 142.84 19.2920 5.26446 -0.4300 1.48016 8.33000 -8.3300 2.50000 -2.5000 
BLIGNE31 LIGNE150     0 0        -0.0161 0.12840 0.00000 0.00000 
BLIGNE32 LIGNE150     0 0        66.7398 -12.916 0.00000 0.00000 
BLILLO10 LILLO380     0 0        -0.0057 -0.0094 0.00000 0.00000 
BLILLO11 LILLO380     0 0        -0.0057 -0.0094 0.00000 0.00000 
BLILLO12 LILLO380     0 0        -0.0167 -0.0230 0.00000 0.00000 
BLILLO13 LILLO380     0 0        -0.0057 -0.0094 0.00000 0.00000 
BLILLO30 LILLO150     0 0        0.00000 0.00000 0.00000 0.00000 
BLILLO31 LILLO150     0 0        0.00000 0.00000 -6.6057 -6.5055 
BLILLO32 LILLO150     0 0        0.00000 0.00000 0.00000 0.00000 
BLILLO33 LILLO150     0 0        0.07578 0.59741 0.00000 0.00000 
BLILLO34 LILLO150     0 0        -0.0175 -0.0341 0.00000 0.00000 
BLINT 10 LINT 380     0 0        -0.0156 -0.0619 0.00000 0.00000 
BLINT 11 LINT 380     0 0        -0.0156 -0.0619 0.00000 0.00000 
BLINT 12 LINT 380     0 0        -0.0163 -0.0155 0.00000 0.00000 
BLINT 31 LINT 150     0 0        -0.0167 -0.0420 0.00000 0.00000 
BLINT 32 LINT 150     0 0        -0.0162 0.05507 0.00000 0.00000 
BLIXHE10 LIXHE380     0 0        -0.0080 -0.1012 0.00000 0.00000 
BLIXHE11 LIXHE380     0 0        -0.0080 -0.1012 0.00000 0.00000 
BLIXHE21 LIXHE220     0 0        27.1715 1.67432 0.00000 0.00000 
BLIXHE30 LIXHE150     0 0        -0.0084 -0.0613 -0.1560 -9.7013 
BLIXHE31 LIXHE150     0 0        -0.0084 -0.0613 0.00000 0.00000 
BLOKER31 LOKER150     0 0        20.6456 -11.325 -0.0339 -2.9860 
BLOMME31 LOMME150     0 0        28.7149 -5.1397 0.00000 0.00000 
BMACHE30 MACHE150     0 0        13.0991 -5.5185 0.00000 0.00000 
BMACHE31 MACHE150     0 0        37.7059 90.5048 0.00000 0.00000 
BMAERL10 MAERL380     0 0        -0.0073 0.04585 0.00000 0.00000 
BMAERL11 MAERL380     0 0        -0.0073 0.04585 0.00000 0.00000 
BMALDR31 MALDR150     0 0        36.5915 -12.322 0.00000 0.00000 
BMALDR32 MALDR150     0 0        33.7701 -11.514 0.00000 0.00000 
BMALEC30 MALEC150     0 0        -0.0109 0.03168 0.00000 0.00000 
BMALEC31 MALEC150     0 0        -0.0109 0.03168 0.00000 0.00000 
BMALEC32 MALEC 15     0 2 144.31 7.44780 1.15199 -4.4820 -2.2487 
BMALLE31 MALLE150     0 0        5.09930 -0.2971 0.00000 0.00000 
BMALLE32 MALLE150     0 0        5.08998 -0.2597 0.00000 0.00000 
BMARC+21 MARC+220     0 0        -0.0104 0.11126 0.00000 0.00000 
BMARCO21 MARCO220     0 0        8.67658 -9.8446 0.00000 0.00000 
BMARQ+31 MARQ+150     0 0        -0.0136 0.15869 0.00000 0.00000 
BMARQU31 MARQU150     0 0        17.3525 -3.7617 0.00000 0.00000 
BMASSE10 MASSE 36     0 0        0.00000 0.00000 0.00000 0.00000 
BMASSE11 MASSE380     0 0        -0.0150 -0.0887 0.00000 0.00000 
BMASSE1A MASSE380     0 0        0.00000 0.00000 0.00000 0.00000 
BMASSE1S              0 0        0.00000 0.00000 0.00000 0.00000 
BMASSE30 MASSE150     0 0        -0.0074 0.03623 0.00000 0.00000 
BMASSE31 MASSE150     0 0        -0.0074 0.03623 0.00000 0.00000 
BMCHIN31 MCHIN150     0 0        0.01570 -0.0587 0.00000 0.00000 
BMECHL30 MECHL150     0 0        48.8836 -1.2173 0.00000 0.00000 
BMECHL31 MECHL150     0 0        -0.0169 -0.0420 0.00000 0.00000 
BMECHL32 MECHL150     0 0        11.8339 -2.0641 -11.834 2.06410 
BMEERH10 MEERH380     0 0        -0.0062 -0.1044 0.00000 0.00000 
BMEERH11 MEERH380     0 0        -0.0062 -0.1044 0.00000 0.00000 
BMEERH12 MEERH 36     0 0        1.07789 4.78743 0.00000 0.00000 
BMEERH13 MEERH 36     0 0        -6.7099 8.90608 0.00000 0.00000 
BMEERH1S              0 0        -0.0171 -0.1265 0.00000 0.00000 
BMEERH1T              0 0        -0.0170 -0.1280 0.00000 0.00000 
BMEERH30 MEERH150     0 0        -0.0081 -0.0725 0.00000 0.00000 
BMEERH31 MEERH150     0 0        -0.0081 -0.0725 0.00000 0.00000 
BMEERH32 MEERH 15     0 2 142.31 9.60970 -5.0821 0.00000 -0.7441 11.6700 -11.670 3.50000 -3.5000 
BMEKI+11 MEKI+380     0 0        -0.0175 -0.0002 0.00000 0.00000 
BMERCA10 MERCA380     0 0        -0.0041 -0.0059 0.00000 0.00000 
BMERCA11 MERCA380     0 0        -0.0041 -0.0059 0.00000 0.00000 
BMERCA12 MERCA380     0 0        -0.0041 -0.0059 0.00000 0.00000 
BMERCA13 MERCA380     0 0        -0.0041 -0.0059 0.00000 0.00000 
BMERCA1A MERCA380     0 0        0.00000 0.00000 0.00000 0.00000 
BMERCA30 MERCA150     0 0        -0.0084 -0.0164 0.00000 0.00000 
BMERCA31 MERCA150     0 0        -0.0084 -0.0164 0.00000 0.00000 
BMERCH31 MERCH150     0 0        8.28495 -8.0005 0.00000 0.00000 
BMERCH32 MERCH150     0 0        22.8142 1.57580 0.00000 0.00000 
BMERK+31 MERK+150     0 0        -0.0146 0.14243 0.00000 0.00000 
BMERK+32 MERK+150     0 0        -0.0146 0.14167 0.00000 0.00000 
BMERKS30 MERKS150     0 0        14.1351 -1.3689 -0.6326 -0.1350 
BMERKS31 MERKS150     0 0        29.0491 -6.4257 0.00000 0.00000 
BMEWST31 MEWST150     0 0        9.91998 -3.6375 0.00000 0.00000 
BMEWST32 MEWST150     0 0        -0.0126 0.17221 0.00000 0.00000 
BMHIN+31 MHIN+150     0 0        -0.0146 -0.0587 0.00000 0.00000 
BMIDI 31 MIDI 150     0 0        21.5998 1.70888 0.00000 0.00000 
BMOEN+31 MOEN+150     0 0        -0.0130 0.17024 0.00000 0.00000 
BMOEN+32 MOEN+150     0 0        -0.0130 0.17023 0.00000 0.00000 
BMOL 130 MOL 150      0 0        17.5221 -10.201 0.00000 0.00000 
BMOL 131 MOL 150      0 0        16.6457 -19.739 0.00000 0.00000 
BMOLEN30 MOLEN150     0 0        8.29021 -7.0033 0.00000 0.00000 
BMOLEN31 MOLEN150     0 0        13.7723 3.14378 0.00000 0.00000 
BMOLEN32 MOLEN150     0 0        0.00000 0.00000 0.00000 0.00000 
BMOLEN33 MOLEN150     0 0        0.00000 0.00000 0.00000 0.00000 
BMONCE21 MONCE220     0 0        -0.0415 0.20610 0.00000 0.00000 
BMONCE30 MONCE150     0 0        11.8963 -5.4660 0.00000 0.00000 
BMONCE31 MONCE150     0 0        15.1626 -0.6748 0.00000 0.00000 
BMONCE3A MONCE150     0 0        0.00000 0.00000 0.00000 0.00000 
BMONTI31 MONTI150     0 0        18.1484 -2.2886 0.00000 0.00000 
BMORTS31 MORTS150     0 0        4.26991 -8.9185 -0.0598 3.00707 
BMORTS3A MORTS150     0 0        0.00000 0.00000 0.00000 0.00000 
BMOUSC30 MOUSC150     0 0        26.4904 73.2051 0.00000 0.00000 
BMOUSC31 MOUSC150     0 0        17.7564 1.93546 0.00000 0.00000 
BMOUSC32 MOUSC 10     0 2 146.13 15.1551 -0.5029 1.52000 1.82332 20.0000 -20.000 6.00000 -6.0000 
BMZLR+31 MZLR+150     0 0        -0.0126 0.16082 0.00000 0.00000 
BMZLR+32 MZLR+150     0 0        -0.0127 0.17202 0.00000 0.00000 
BNDOKS31 NDOKS150     0 0        0.63688 -0.4618 0.00000 0.00000 
BNDOKS32 NDOKS150     0 0        0.62496 -0.9604 0.00000 0.00000 
BNEMO 1A NEMO 380     0 0        0.00000 0.00000 0.00000 0.00000 
BNEMO 1B NEMO 380     0 0        0.00000 0.00000 0.00000 0.00000 
BNEUVI31 NEUVI150     0 0        -0.0235 0.08793 -12.897 -5.0834 
BNIEUW30 NIEUW150     0 0        13.6533 -9.3111 0.00000 0.00000 
BNIEUW31 NIEUW150     0 0        14.0195 -2.4830 0.00000 0.00000 
BNINO+31 NINO+150     0 0        -0.0195 0.01855 0.00000 0.00000 
BNINOV31 NINOV150     0 0        36.1880 -13.923 0.00000 0.00000 
BNINOV32 NINOV150     0 0        8.04300 -2.5903 0.00000 0.00000 
BNIVEL30 NIVEL 15     0 2 141.43 8.18320 -2.0602 -8.2040 -2.9358 17.7800 -17.780 5.30000 -5.3000 
BNIVEL31 NIVEL150     0 0        -0.0207 0.03802 0.00000 0.00000 
BNIVEL32 NIVEL150     0 0        -0.0218 0.06202 0.00000 0.00000 
BNORDL31 NORDL150     0 0        -0.0176 -0.0345 0.00000 0.00000 
BOBOU+31 OBOU+150     0 0        -0.0212 0.08078 0.00000 0.00000 
BOBOUR31 OBOUR150     0 0        7.56884 -4.6007 0.00000 0.00000 
BOBOUR32 OBOUR150     0 0        26.2988 11.4592 0.00000 0.00000 
BOBOUR3A OBOUR150     0 0        0.00000 0.00000 0.00000 0.00000 
BOBOUR3B OBOUR150     0 0        0.00000 0.00000 0.00000 0.00000 
BOELEG31 OELEG150     0 0        6.81650 -1.4633 0.00000 0.00000 
BOELEG32 OELEG150     0 0        6.29622 -3.8451 0.00000 0.00000 
BOISQU31 OISQU150     0 0        26.3948 -22.157 -1.4267 1.50240 
BOOSTR31 OOSTR150     0 0        12.1398 2.72074 0.00000 0.00000 
BOS1ST20 OS1ST220     0 0        -0.0074 0.00001 0.00000 0.00000 
BOS1ST21 OS1ST220     0 0        -0.0074 0.00001 0.00000 0.00000 
BOS2ST20 OS2ST220     0 2 224.40 -0.0148 0.00000 0.00000 0.67948 38.5000 -38.500 38.5000 -38.500 
BOS2ST21 OS2ST220     0 2 224.40 -0.0148 0.00000 0.00000 0.67948 38.5000 -38.500 38.5000 -38.500 
BOS2ST22 OS2ST220     0 2 224.51 3.71919 0.14200 -0.8400 3.67588 
BOS2ST23 OS2ST220     0 0        -0.0148 0.00002 0.00000 0.00000 
BOUDNA31 OUDNA150     0 0        15.4422 1.02769 0.00000 0.00000 
BOUDNA32 OUDNA150     0 0        10.7492 -3.9086 0.00000 0.00000 
BOVERP31 OVERP150     0 0        21.7533 -3.9706 0.00000 0.00000 
BPACHE30 PACHE150     0 0        4.53520 -0.6541 0.00000 0.00000 
BPACHE31 PACHE150     0 0        0.00000 0.00000 0.00000 0.00000 
BPACHE3A PACHE150     0 0        0.00000 0.00000 0.00000 0.00000 
BPATUR3A PATUR150     0 0        0.00000 0.00000 0.00000 0.00000 
BPEKK+31 PEKK+150     0 0        -0.0126 0.17221 0.00000 0.00000 
BPEKK+32 PEKK+150     0 0        -0.0125 0.17524 0.00000 0.00000 
BPEMA+31 PEMA+150     0 0        -0.0204 0.08629 0.00000 0.00000 
BPEMA+32 PEMA+150     0 0        -0.0204 0.08596 0.00000 0.00000 
BPEMA231 PEMA2150     0 0        51.2124 35.1529 0.00000 0.00000 
BPEMA232 PEMA2150     0 0        50.6464 39.4015 0.00000 0.00000 
BPEMAR31 PEMAR150     0 0        40.6499 -5.8692 0.00000 0.00000 
BPEMAR32 PEMAR150     0 0        27.5354 -6.7520 0.00000 0.00000 
BPETRO31 PETRO150     0 0        16.0082 -4.4322 0.00000 0.00000 
BPITEM31 PITEM150     0 0        24.7868 4.94917 0.00000 0.00000 
BPITEM32 PITEM150     0 0        19.8538 7.91605 0.00000 0.00000 
BPLATE31 PLATE150     0 0        41.4095 6.65167 0.00000 0.00000 
BPOEDE31 POEDE150     0 0        5.45050 -4.5338 0.00000 0.00000 
BPOEDE32 POEDE150     0 0        5.13436 -4.4083 0.00000 0.00000 
BPONT+31 PONT+150     0 0        -0.0223 0.06455 0.00000 0.00000 
BPOPSA31 POPSA150     0 0        9.44746 -8.5861 0.00000 0.00000 
BPORTF31 PORTF150     0 0        -0.0173 0.00820 -0.9838 -5.6656 
BPORTP31 PORTP150     0 0        29.4948 -7.4038 0.00000 0.00000 
BPORTP32 PORTP150     0 0        22.1700 11.8266 0.00000 0.00000 
BPP3 131 PP3 150      0 0        15.1674 8.98083 0.00000 0.00000 
BPP3 132 PP3 150      0 0        15.3672 8.18992 0.00000 0.00000 
BPRECH31 PRECH150     0 0        24.2845 -5.8693 0.00000 0.00000 
BPRECH32 PRECH150     0 0        16.7470 -2.7039 0.00000 0.00000 
BPUTTE31 PUTTE150     0 0        0.02140 0.10476 0.00000 0.00000 
BPUTTE32 PUTTE150     0 0        5.52784 -5.6562 0.00000 0.00000 
BQDEME31 QDEME150     0 0        6.28856 -3.0128 0.00000 0.00000 
BQUAR+31 QUAR+150     0 0        -0.0204 0.08630 0.00000 0.00000 
BQUAR+32 QUAR+150     0 0        -0.0204 0.08597 0.00000 0.00000 
BRELE+31 RELE+150     0 0        -0.0168 -0.0259 0.00000 0.00000 
BRELEG31 RELEG150     0 0        3.81673 -4.7122 0.00000 0.00000 
BRHODE31 RHODE150     0 0        6.52551 -2.5765 0.00000 0.00000 
BRIJKE30 RIJKE150     0 0        0.00000 0.00000 0.00000 0.00000 
BRIJKE31 RIJKE150     0 0        0.60068 -4.8763 0.00000 0.00000 
BRIMIE10 RIMIE 36     0 0        0.00000 0.00000 0.00000 0.00000 
BRIMIE1A RIMIE380     0 0        0.00000 0.00000 0.00000 0.00000 
BRIMIE1B RIMIE380     0 0        0.00000 0.00000 0.00000 0.00000 
BRIMIE1C RIMIE380     0 0        0.00000 0.00000 0.00000 0.00000 
BRIMIE1S              0 0        0.00000 0.00000 0.00000 0.00000 
BRIMIE1T              0 0        0.00000 0.00000 0.00000 0.00000 
BRIMIE20 RIMIE220     0 0        0.00000 0.00000 0.00000 0.00000 
BRIMIE21 RIMIE220     0 0        30.0519 123.611 0.00000 0.00000 
BRIMIE2A RIMIE220     0 0        0.00000 0.00000 0.00000 0.00000 
BRIMIE2B RIMIE220     0 0        0.00000 0.00000 0.00000 0.00000 
BRIMIE2C RIMIE220     0 0        0.00000 0.00000 0.00000 0.00000 
BRINGV30 RINGV 24     0 2 154.68 3.82300 4.68800 -236.79 -32.650 470.000 -470.00 80.0000 -560.00 
BRINGV31 RINGV150     0 0        -0.0147 0.05220 0.00000 0.00000 
BRODE+11 RODE+380     0 0        -0.0152 0.08177 0.00000 0.00000 
BRODE+1A RODE+380     0 0        0.00000 0.00000 0.00000 0.00000 
BRODEN11 RODEN380     0 0        -0.0152 0.08171 0.00000 0.00000 
BRODEN1A RODEN380     0 0        0.00000 0.00000 0.00000 0.00000 
BRODEN30 RODEN150     0 0        23.8361 -5.8484 0.00000 0.00000 
BRODEN31 RODEN150     0 0        0.00000 0.00000 0.00000 0.00000 
BRODEN3A RODEN150     0 0        0.00000 0.00000 0.00000 0.00000 
BROEVG31 ROEVG150     0 0        25.3733 -6.2877 0.00000 0.00000 
BROMSE21 ROMSE220     0 0        43.7791 -12.221 0.00000 0.00000 
BROMSE2A ROMSE220     0 0        0.00000 0.00000 0.00000 0.00000 
BROMSS21 ROMSS220     0 0        0.99781 -4.1604 0.00000 0.00000 
BROMSS22 ROMSS220     0 0        0.97182 -4.1724 0.00000 0.00000 
BROUVR20 ROUVR 15     0 2 220.00 53.9428 10.2080 -36.100 -16.393 
BROUVR21 ROUVR220     0 0        -0.0040 0.30331 0.00000 0.00000 
BRUIEN30 RUIEN150     0 0        28.9315 -2.4628 0.00000 0.00000 
BRUIEN31 RUIEN150     0 0        23.3485 -2.0494 0.00000 0.00000 
BRUIEN3A RUIEN150     0 0        0.00000 0.00000 0.00000 0.00000 
BRUMBE31 RUMBE150     0 0        31.7761 3.24537 0.00000 0.00000 
BRUMBE32 RUMBE150     0 0        -0.0127 0.16081 0.00000 0.00000 
BSART 21 SART 220     0 0        30.9172 -14.472 0.00000 0.00000 
BSART+21 SART+220     0 0        -0.0156 -0.0504 0.00000 0.00000 
BSCARB30 SCARB150     0 0        16.0659 -5.8390 -1.5392 -2.9662 
BSCARB31 SCARB150     0 0        21.5611 -6.5322 0.00000 0.00000 
BSCHD+31 SCHD+150     0 0        -0.0168 -0.0357 0.00000 0.00000 
BSCHD+32 SCHD+150     0 0        -0.0168 -0.0357 0.00000 0.00000 
BSCHED31 SCHED150     0 0        29.9919 -11.681 0.00000 0.00000 
BSCHED32 SCHED150     0 0        26.5331 -8.9236 0.00000 0.00000 
BSCHEL30 SCHEL150     0 0        0.00000 0.00000 0.00000 0.00000 
BSCHEL31 SCHEL150     0 0        23.6961 -14.668 0.00000 0.00000 
BSDALE31 SDALE150     0 0        15.4871 2.76848 -0.5101 -0.0889 
BSEILL31 SEILL150     0 0        8.54518 -11.749 0.00000 0.00000 
BSENO+21 SENO+220     0 0        -0.0075 0.20397 0.00000 0.00000 
BSERAI20 SERAI220     0 0        17.3099 6.90110 0.00000 0.00000 
BSERAI21 SERAI220     0 0        22.1129 -0.8020 0.00000 0.00000 
BSERAI2A SERAI220     0 0        0.00000 0.00000 0.00000 0.00000 
BSIDAL31 SIDAL150     0 0        22.9476 7.98445 0.00000 0.00000 
BSIDMA31 SIDMA150     0 0        261.492 79.4934 0.00000 0.00000 
BSIDMA3A SIDMA150     0 0        0.00000 0.00000 0.00000 0.00000 
BSIKE+31 SIKE+150     0 0        -0.0174 -0.1329 0.00000 0.00000 
BSIKE+32 SIKE+150     0 0        -0.0174 -0.1367 0.00000 0.00000 
BSIKEL31 SIKEL150     0 0        7.21424 2.82148 0.00000 0.00000 
BSIKEL32 SIKEL150     0 0        15.9073 9.60010 0.00000 0.00000 
BSJOB 31 SJOB 150     0 0        10.1564 -24.351 0.00000 0.00000 
BSLAAN30 SLAAN150     0 0        18.9544 7.54650 0.00000 0.00000 
BSLAAN31 SLAAN150     0 0        27.7039 6.23083 0.00000 0.00000 
BSLAAN32 SLAAN150     0 0        0.00000 0.00000 0.00000 0.00000 
BSLAAN33 SLAAN150     0 0        0.00000 0.00000 0.00000 0.00000 
BSLYKE30 SLYKE150     0 0        12.8956 60.4859 0.00000 0.00000 
BSLYKE31 SLYKE150     0 0        25.1188 -14.067 0.00000 0.00000 
BSMARD21 SMARD220     0 0        3.91826 -1.6284 0.00000 0.00000 
BSMARS21 SMARS220     0 0        6.85533 -1.6559 0.00000 0.00000 
BSMARS22 SMARS220     0 0        2.90941 -1.6833 0.00000 0.00000 
BSOLAN30 SOLAN150     0 0        62.7714 17.7856 0.00000 0.00000 
BSOLAN31 SOLAN150     0 0        62.7714 17.7856 0.00000 0.00000 
BSOLV231 SOLV2150     0 0        -0.0217 0.05653 -12.546 9.59035 
BSOLV331 SOLV3150     0 0        -0.0217 0.05658 -13.180 -4.5613 
BSTAD+31 STAD+150     0 0        -0.0131 0.12372 0.00000 0.00000 
BSTAD+32 STAD+150     0 0        -0.0130 0.12442 0.00000 0.00000 
BSTALE31 STALE150     0 0        38.8520 -11.203 0.00000 0.00000 
BSTALE3A STALE150     0 0        0.00000 0.00000 0.00000 0.00000 
BSTAM+11 STAM+380     0 0        -0.0171 0.00626 0.00000 0.00000 
BSTBAV31 STBAV150     0 0        30.1351 -3.9074 0.00000 0.00000 
BSTEVN10 STEVN380     0 0        -0.0037 124.256 0.00000 0.00000 
BSTEVN11 STEVN380     0 0        -0.0037 0.00000 0.00000 0.00000 
BSTEVN12 STEVN380     0 0        -0.0037 0.00000 0.00000 0.00000 
BSTEVN13 STEVN380     0 0        -0.0037 0.00000 0.00000 0.00000 
BSTEVN20 STEVN220     0 0        -0.0037 127.793 0.00000 0.00000 
BSTEVN21 STEVN220     0 0        -0.0037 127.793 0.00000 0.00000 
BSTEVN22 STEVN220     0 0        -0.0037 127.793 0.00000 0.00000 
BSTEVN23 STEVN220     0 0        -0.0037 127.793 0.00000 0.00000 
BSTEVN31 STEVN150     0 0        -0.0148 0.00171 0.00000 0.00000 
BSTEVN32 STEVN150     0 0        -0.0148 0.00171 0.00000 0.00000 
BSTGIL31 STGIL150     0 0        9.45782 -7.0758 0.00000 0.00000 
BSTGIL32 STGIL150     0 0        0.98189 0.11952 0.00000 0.00000 
BSTNIK31 STNIK150     0 0        7.31342 -3.2282 0.00000 0.00000 
BSTPAU31 STPAU150     0 0        3.82141 -4.5073 0.00000 0.00000 
BSTPAU32 STPAU150     0 0        4.02992 -2.1984 0.00000 0.00000 
BTERGN11 TERGN380     0 0        -0.0173 0.00816 0.00000 0.00000 
BTERGN30 TERGN150     0 0        -0.0108 0.02829 0.00000 0.00000 
BTERGN31 TERGN150     0 0        -0.0108 0.02829 -3.2620 -0.7908 
BTERGN32 TERGN150     0 0        -0.0173 0.00819 0.00000 0.00000 
BTERL+31 TERL+150     0 0        -0.0169 -0.0287 0.00000 0.00000 
BTERL+32 TERL+150     0 0        -0.0169 -0.0288 0.00000 0.00000 
BTERTR31 TERTR150     0 0        26.7235 15.3954 0.00000 0.00000 
BTERTR3A TERTR150     0 0        0.00000 0.00000 0.00000 0.00000 
BTERTR3B TERTR150     0 0        0.00000 0.00000 0.00000 0.00000 
BTESSE30 TESSE150     0 0        32.3986 2.28037 0.00000 0.00000 
BTESSE31 TESSE150     0 0        5.58463 -1.3509 0.00000 0.00000 
BTHORN30 THORN150     0 2 153.60 -0.0152 0.00001 0.00000 -10.953 79.3500 -79.350 10.0000 -48.000 
BTHORN31 THORN150     0 2 153.60 -0.0152 0.00001 0.00000 -10.953 112.100 -112.10 10.0000 -48.000 
BTHORN32 THORN150     0 2 153.60 -0.0152 0.00001 0.00000 -10.668 158.710 -158.71 10.0000 -48.000 
BTHORN33 THORN150     0 2 153.60 0.54882 -0.5770 -0.0200 19.6782 158.710 -158.71 
BTHORN34 THORN150     0 2 153.60 1.13482 -0.9120 -0.0200 31.5263 
BTHORN3A THORN150     0 0        0.00000 0.00000 0.00000 0.00000 
BTHUIL31 THUIL150     0 0        3.39649 -2.1466 0.00000 0.00000 
BTHUIL32 THUIL150     0 0        -0.0236 0.08810 0.00000 0.00000 
BTHYCH31 THYCH150     0 0        -0.0236 0.08818 -1.9702 2.29198 
BTHYCH3A THYCH150     0 0        0.00000 0.00000 0.00000 0.00000 
BTIBIS10 TIBIS 36     0 0        -0.0131 -0.0413 0.00000 0.00000 
BTIBIS11 TIBIS380     0 0        -0.0136 -0.0101 0.00000 0.00000 
BTIBIS1S              0 0        -0.0151 -0.0473 0.00000 0.00000 
BTIBIS31 TIBIS150     0 0        -0.0149 -0.0437 0.00000 0.00000 
BTIELT31 TIELT150     0 0        19.0016 3.95161 0.00000 0.00000 
BTIEN+31 TIEN+150     0 0        -0.0159 -0.0502 0.00000 0.00000 
BTIEN+32 TIEN+150     0 0        -0.0159 -0.0508 0.00000 0.00000 
BTIENE31 TIENE150     0 0        38.5221 -9.5152 0.00000 0.00000 
BTIENE32 TIENE150     0 0        5.19151 -1.1432 0.00000 0.00000 
BTIHA+31 TIHA+150     0 0        -0.0147 -0.0611 0.00000 0.00000 
BTIHA110 TIHA1 18     0 2 375.44 22.3867 -56.489 -507.79 -0.0835 578.000 -578.00 95.0000 -470.00 
BTIHA111 TIHA1380     0 0        -0.0135 -0.0092 0.00000 0.00000 
BTIHA112 TIHA1380     0 0        -0.0135 -0.0092 0.00000 0.00000 
BTIHA113 TIHA1 18     0 2 375.82 22.3807 -8.4670 -509.73 -52.806 578.000 -578.00 95.0000 -470.00 
BTIHA211 TIHA2380     0 0        -0.0136 -0.0099 0.00000 0.00000 
BTIHA310 TIHA3 24     0 2 407.08 47.7136 32.4920 -1085.1 65.7890 1330.00 -1330.0 125.000 -740.00 
BTIHA311 TIHA3380     0 0        0.00000 0.00000 0.00000 0.00000 
BTIHAN30 TIHAN150     0 0        2.50570 1.36921 0.00000 0.00000 
BTIHAN31 TIHAN150     0 0        2.50570 1.43581 0.00000 0.00000 
BTRIVI30 TRIVI150     0 0        -0.0108 0.03667 0.00000 0.00000 
BTRIVI31 TRIVI150     0 0        -0.0108 0.03667 0.00000 0.00000 
BTSTSC3A TSTSC150     0 0        0.00000 0.00000 0.00000 0.00000 
BTSTSD2A TSTSD220     0 0        0.00000 0.00000 0.00000 0.00000 
BTSTSE2A TSTSE220     0 0        0.00000 0.00000 0.00000 0.00000 
BUMBAL31 UMBAL150     0 0        45.3962 0.59320 0.00000 0.00000 
BUMBAL32 UMBAL150     0 0        11.5395 10.3367 0.00000 0.00000 
BUMBAL33 UMBAL150     0 0        26.7972 1.85372 0.00000 0.00000 
BUMBAL34 UMBAL150     0 0        39.8821 13.1593 0.00000 0.00000 
BUMHOB31 UMHOB150     0 0        0.02543 -0.0341 0.00000 0.00000 
BUMHOB32 UMHOB150     0 0        23.4117 7.39992 0.00000 0.00000 
BUMOVE31 UMOVE150     0 0        14.8291 0.55213 0.00000 0.00000 
BUMOVE3A UMOVE150     0 0        0.00000 0.00000 0.00000 0.00000 
BVALE+31 VALE+150     0 0        -0.0235 0.08796 0.00000 0.00000 
BVANYK10 VANYK380     0 0        0.00787 -0.6156 0.00000 0.00000 
BVANYK11 VANYK380     0 0        -0.0140 -0.4109 0.00000 0.00000 
BVANYK12 VANYK380     0 0        -0.0032 -0.4509 0.00000 0.00000 
BVANYK13 VANYK380     0 0        -0.0052 -0.7996 0.00000 0.00000 
BVERBR11 VERBR380     0 0        -0.0169 -0.0163 0.00000 0.00000 
BVERBR12 VERBR 36     0 0        5.96724 -11.014 0.00000 0.00000 
BVERBR1A VERBR380     0 0        0.00000 0.00000 0.00000 0.00000 
BVERBR1S              0 0        -0.0167 -0.0296 0.00000 0.00000 
BVERBR30 VERBR150     0 0        -0.0042 -0.0071 -0.1198 -0.2534 
BVERBR31 VERBR150     0 0        -0.0042 -0.0071 -0.1498 -0.3539 
BVERBR32 VERBR150     0 0        -0.0042 -0.0071 0.00000 0.00000 
BVERBR33 VERBR150     0 0        -0.0042 -0.0071 0.00000 0.00000 
BVHAIN30 VHAIN150     0 0        11.8439 13.0483 0.00000 0.00000 
BVHAIN31 VHAIN150     0 0        0.00000 76.6260 0.00000 0.00000 
BVHAIN3A VHAIN150     0 0        0.00000 0.00000 0.00000 0.00000 
BVHAIN3B VHAIN150     0 0        0.00000 0.00000 0.00000 0.00000 
BVIEU+31 VIEU+150     0 0        -0.0206 0.03881 0.00000 0.00000 
BVIEU+32 VIEU+150     0 0        -0.0218 0.06202 0.00000 0.00000 
BVILLE20 VILLE220     0 0        6.50507 -10.480 0.00000 0.00000 
BVILLE21 VILLE220     0 0        6.05126 -16.850 0.00000 0.00000 
BWALGO31 WALGO150     0 0        9.32054 -1.1709 0.00000 0.00000 
BWALGO32 WALGO150     0 0        9.81897 -1.4989 0.00000 0.00000 
BWATER31 WATER150     0 0        8.09429 -1.0502 0.00000 0.00000 
BWATT+31 WATT+150     0 0        -0.0155 0.13995 0.00000 0.00000 
BWATT+32 WATT+150     0 0        -0.0161 0.12995 0.00000 0.00000 
BWESPL31 WESPL150     0 0        5.87686 -1.6376 0.00000 0.00000 
BWESPL32 WESPL150     0 0        5.12743 -1.5896 0.00000 0.00000 
BWESTR31 WESTR150     0 0        9.75552 -3.9263 0.00000 0.00000 
BWESTR32 WESTR150     0 0        37.4196 20.8542 0.00000 0.00000 
BWIJGM31 WIJGM150     0 0        -0.0165 -0.0382 0.00000 0.00000 
BWILSE31 WILSE150     0 0        57.8973 -13.888 0.00000 0.00000 
BWINK+31 WINK+150     0 0        -0.0166 -0.0345 0.00000 0.00000 
BWINK+32 WINK+150     0 0        -0.0166 -0.0359 0.00000 0.00000 
BWINKS31 WINKS150     0 0        0.71584 3.47445 0.00000 0.00000 
BWINKS32 WINKS150     0 0        0.64248 2.45571 0.00000 0.00000 
BWIRTZ31 WIRTZ150     0 0        0.00799 0.02190 0.00000 0.00000 
BWIRTZ32 WIRTZ150     0 0        10.6079 0.03987 0.00000 0.00000 
BWOLUW31 WOLUW150     0 0        30.5832 -7.4998 0.00000 0.00000 
BWOMM+31 WOMM+150     0 0        -0.0152 0.08954 0.00000 0.00000 
BWOMM+3A WOMM+150     0 0        0.00000 0.00000 0.00000 0.00000 
BWOMME31 WOMME150     0 0        11.8413 -6.9695 0.00000 0.00000 
BWOMME3A WOMME150     0 0        0.00000 0.00000 0.00000 0.00000 
BWORTG30 WORTG150     0 0        16.1603 3.63133 0.00000 0.00000 
BWORTG31 WORTG150     0 0        16.4928 -2.0778 0.00000 0.00000 
BWORTG32 WORTG150     0 0        -0.0132 0.15443 0.00000 0.00000 
BWORTG33 WORTG150     0 0        -0.0129 0.17435 0.00000 0.00000 
BWP1OS20 WP1OS220     0 2 224.18 -0.0148 0.00000 0.00000 1.65997 38.5000 -38.500 37.5000 -38.500 
BWP1OS21 WP1OS220     0 2 224.18 -0.0148 0.00000 0.00000 1.65997 38.5000 -38.500 37.5000 -38.500 
BWP1OS22 WP1OS220     0 2 224.51 3.83719 -0.4880 -0.3400 -32.078 
BWP2OS20 WP2OS220     0 2 224.18 -0.0148 0.00000 0.00000 1.54260 36.0000 -36.000 35.0000 -36.000 
BWP2OS21 WP2OS220     0 2 224.18 -0.0148 0.00000 0.00000 1.54260 36.0000 -36.000 35.0000 -36.000 
BWP2OS22 WP2OS220     0 2 224.51 2.58119 -0.3940 -0.3400 -31.816 
BWP2ST20 WP2ST220     0 2 223.08 -0.0148 0.00000 0.00000 -69.857 194.400 -194.40 140.000 -999.00 
BWP2ST21 WP2ST220     0 2 223.06 5.02924 -0.7160 -0.4000 158.384 
BWP2ST22 WP2ST220     0 2 223.08 -0.0148 0.00000 0.00000 -69.857 194.400 -194.40 140.000 -999.00 
BWP3OS20 WP3OS220     0 2 223.30 -0.0148 0.00001 0.00000 5.95651 38.5000 -38.500 36.5000 -38.500 
BWP3OS21 WP3OS220     0 2 223.30 -0.0148 0.00001 0.00000 5.95651 38.5000 -38.500 36.5000 -38.500 
BWP3OS22 WP3OS220     0 2 224.49 2.10319 -0.3900 0.02000 57.7757 
BWVLGM30 WVLGM150     0 0        13.3122 -5.9424 0.00000 0.00000 
BWVLGM31 WVLGM150     0 0        0.02226 0.00688 0.00000 0.00000 
BXSCSC20 XSCSC220     0 0        0.04423 0.08954 0.00000 0.00000 
BXSCSC21 XSCSC220     0 0        0.01654 0.21634 0.00000 0.00000 
BZANDV10 ZANDV380     0 0        -0.0058 -0.0122 0.00000 0.00000 
BZANDV11 ZANDV380     0 0        -0.0058 -0.0122 0.00000 0.00000 
BZANDV12 ZANDV380     0 0        -0.0058 -0.0122 0.00000 0.00000 
BZANDV13 ZANDV380     0 0        -0.0094 -0.0361 0.00000 0.00000 
BZANDV14 ZANDV380     0 0        -0.0094 -0.0361 0.00000 0.00000 
BZANDV15 ZANDV 36     0 0        -1.5766 -6.9704 0.00000 0.00000 
BZANDV16 ZANDV 36     0 0        -1.0026 -7.5016 0.00000 0.00000 
BZANDV1A ZANDV380     0 0        0.00000 0.00000 0.00000 0.00000 
BZANDV1S              0 0        -0.0176 -0.0339 0.00000 0.00000 
BZANDV1T              0 0        -0.0176 -0.0341 0.00000 0.00000 
BZANDV30 ZANDV150     0 0        -0.0059 -0.0115 0.00000 0.00000 
BZANDV31 ZANDV150     0 0        -0.0059 -0.0115 0.00000 0.00000 
BZANDV32 ZANDV150     0 0        -0.0059 -0.0115 0.00000 0.00000 
BZAVEN31 ZAVEN150     0 0        24.6210 -11.738 0.00000 0.00000 
BZBINT31 ZBINT150     0 0        0.74719 -2.0265 0.00000 0.00000 
BZBINT32 ZBINT150     0 0        0.74724 -2.3518 0.00000 0.00000 
BZEDEL31 ZEDEL150     0 0        42.0003 -24.657 0.00000 0.00000 
BZEDEL3A ZEDEL150     0 0        0.00000 0.00000 0.00000 0.00000 
BZEEBR30 ZEEBR150     0 0        46.4078 -21.530 0.00000 0.00000 
BZEEBR31 ZEEBR150     0 0        0.00000 0.00000 0.00000 0.00000 
BZELEI31 ZELEI150     0 0        23.4863 -5.7294 0.00000 0.00000 
BZELEI32 ZELEI150     0 0        22.6430 -8.1629 0.00000 0.00000 
BZELI+31 ZELI+150     0 0        -0.0170 -0.0324 0.00000 0.00000 
BZNAAM20 ZNAAM220     0 2 222.64 -0.0148 0.00002 0.00000 2.11661 32.3500 -32.350 17.8000 -32.300 
BZNAAM21 ZNAAM220     0 0        -0.0148 0.00021 0.00000 0.00000 
BZNAAM22 ZNAAM220     0 2 222.64 -0.0148 0.00002 0.00000 2.11661 34.1500 -34.150 18.8000 -34.200 
BZNAAM23 ZNAAM220     0 2 223.07 0.33724 -0.5220 0.36000 -13.126 
BZOGLI31 ZOGLI150     0 0        19.8590 -3.3529 0.00000 0.00000 
BZUREN30 ZUREN150     0 0        22.3715 -8.8029 0.00000 0.00000 
BZUREN31 ZUREN150     0 0        11.9986 -2.6668 0.00000 0.00000 
BZUTE+11 ZUTE+380     0 0        -0.0143 -0.2585 0.00000 0.00000 
BZWEVG31 ZWEVG150     0 0        5.21920 -2.3281 0.00000 0.00000 
BZWEVG32 ZWEVG150     0 0        5.02270 -2.2112 0.00000 0.00000 
BZWIJN30 ZWIJN150     0 0        29.1348 4.53817 0.00000 0.00000 
BZWIJN31 ZWIJN150     0 0        31.6421 81.7417 0.00000 0.00000 
##ZCZ
CAD___51 CAD___51     0 0        0.91434 -0.0999 0.00000 0.00000 
CALB__1A CALB__1A     0 0        0.00690 0.04015 0.00000 0.00000 
CALB__1B CALB__1B     0 0        0.00690 0.04015 0.00000 0.00000 
CALB__1C CALB__1C     0 0        0.00690 0.04015 0.00000 0.00000 
CALB__1D CALB__1D     0 0        0.00690 0.04015 0.00000 0.00000 
CALB__50 CALB__50     0 0        0.00000 0.00000 0.00000 0.00000 
CALB__51 CALB__51     0 0        0.00000 0.00000 0.00000 0.00000 
CALB__52 CALB__52     0 0        0.02846 0.09863 0.00000 0.00000 
CALB__53 CALB__53     0 0        -10.402 -0.8030 0.00000 0.00000 
CALB__54 CALB__54     0 0        0.00000 0.00000 0.00000 0.00000 
CALB__55 CALB__55     0 0        0.00000 0.00000 0.00000 0.00000 
CALB__56 CALB__56     0 0        0.00000 0.00000 0.00000 0.00000 
CALB__58 CALB__58     0 0        0.00000 0.00000 0.00000 0.00000 
CALB__59 CALB__59     0 0        0.00000 0.00000 0.00000 0.00000 
CAS01_51 CAS01_51     0 0        0.00000 0.00000 0.00000 -0.0100 0.00000 -13.350 1.33000 -1.6000 
CAS01_52 CAS01_52     0 2 116.80 8.00891 -0.5102 -4.3530 -0.3616 0.00000 -13.350 1.33000 -1.5100 
CAZB__53 CAZB__53     0 0        0.03491 0.05631 0.00000 0.00000 
CAZB__54 CAZB__54     0 0        0.00000 0.00000 0.00000 -0.0100 0.00000 -2.1800 
CAZB__55 CAZB__55     0 2 115.30 75.4774 17.2400 -64.163 3.54996 -6.0000 -92.360 22.5810 -40.000 
CAZB__56 CAZB__56     0 0        0.00000 0.00000 0.00000 0.00000 
CBAB__11 CBAB__11     0 0        0.01467 0.12817 0.00000 0.00000 
CBAB__12 CBAB__12     0 0        0.01467 0.12817 0.00000 0.00000 
CBAB__15 CBAB__15     0 0        0.00000 0.00000 0.00000 0.00000 
CBAB__51 CBAB__51     0 0        0.00000 0.00000 0.00000 0.00000 
CBAB__52 CBAB__52     0 0        0.02935 0.25637 0.00000 0.00000 
CBAB__53 CBAB__53     0 0        0.00000 0.00000 0.00000 0.00000 
CBAB__54 CBAB__54     0 0        0.17262 -8.1120 0.00000 0.00000 
CBAB__55 CBAB__55     0 0        0.00000 0.00000 0.00000 0.00000 
CBAB__56 CBAB__56     0 0        0.00000 0.00000 0.00000 0.00000 
CBAR__53 CBAR__53     0 2 119.70 35.7714 8.24994 -7.8200 -11.519 -7.8200 -25.000 9.40000 -18.800 
CBAR__54 CBAR__54     0 0        0.00000 0.00000 0.00000 0.00000 
CBED__51 CBED__51     0 0        0.00000 0.00000 0.00000 0.00000 
CBED__52 CBED__52     0 0        0.73593 -0.6300 0.00000 0.00000 
CBEE__51 CBEE__51     0 2 117.98 12.5424 -3.5900 0.00000 1.74641 0.00000 -2.8600 
CBEE__52 CBEE__52     0 2 117.98 19.6295 -4.2800 0.00000 1.74641 0.00000 -5.7200 
CBEJ__51 CBEJ__51     0 2 117.51 18.9730 -2.4414 -0.8880 0.63575 0.00000 -12.260 0.64000 -0.7500 
CBEJ__52 CBEJ__52     0 0        0.00000 0.00000 0.00000 0.00000 
CBEJ__53 CBEJ__53     0 0        0.00000 0.00000 0.00000 0.00000 
CBELA_51 CBELA_51     0 0        0.00000 0.00000 0.00000 -0.0100 0.00000 -27.840 
CBELA_52 CBELA_52     0 2 119.70 6.54790 -1.0600 0.00000 0.46800 0.00000 -27.840 
CBEN__51 CBEN__51     0 2 117.30 22.0260 -6.1600 0.00000 2.64171 0.00000 -28.860 
CBEN__52 CBEN__52     0 0        0.03189 -0.0003 0.00000 -0.0100 0.00000 -1.5600 0.78000 -1.0400 
CBEP__51 CBEP__51     0 0        20.6530 4.94870 0.00000 0.00000 
CBERE_51 CBERE_51     0 0        1.03526 0.05000 0.00000 0.00000 
CBER__51 CBER__51     0 0        0.00000 0.00000 0.00000 0.00000 
CBER__52 CBER__52     0 2 118.70 21.7253 -7.5400 0.00000 -4.5269 0.00000 -23.820 
CBEX__51 CBEX__51     0 0        0.00000 0.00000 0.00000 0.00000 
CBEX__52 CBEX__52     0 2 117.93 7.30236 -3.0900 0.00000 -0.5487 0.00000 -32.370 
CBEZ__11 CBEZ__11     0 0        0.01556 0.29504 0.00000 0.00000 
CBEZ__12 CBEZ__12     0 0        0.01556 0.29504 0.00000 0.00000 
CBEZ__15 CBEZ__15     0 0        0.00000 0.00000 0.00000 0.00000 
CBEZ__21 CBEZ__21     0 0        0.03906 0.34338 0.00000 0.00000 
CBEZ__51 CBEZ__51     0 0        0.00000 0.00000 0.00000 0.00000 
CBEZ__52 CBEZ__52     0 0        0.16503 -20.904 0.00000 0.00000 
CBEZ__53 CBEZ__53     0 0        0.00000 0.00000 0.00000 0.00000 
CBEZ__54 CBEZ__54     0 0        0.00000 0.00000 0.00000 0.00000 
...